src/examples/case5/br7/results/res_branch_1.csv
branch,from_bus,to_bus,X,B,G,Bfr,Bto,p_from,p_to,q_from,q_to,p_loss,q_loss,s_from,s_to,rate_a,ang_deg,angmin,angmax
4,2,3,0.0108,-91.67583425009167,9.167583425009166,0.00926,0.00926,-0.09535733579603888,0.09532791111389545,-0.7391065284119148,0.7220722604305004,2.9424682143425196e-5,-0.017034267981414386,0.7452325018618223,0.7283376688875505,4.26,-0.011665273996188634,-29.999999999999996,29.999999999999996
2,1,4,0.0304,-32.56904637832204,3.2569046378322044,0.00329,0.00329,2.774916842748932,-2.7561995062606375,0.09202015626963736,0.09231138402301074,0.018717336488294656,0.1843315402926481,2.77644218260197,2.757744931992737,4.26,4.016095262145488,-29.999999999999996,29.999999999999996
3,1,10,0.0064,-154.7029702970297,15.470297029702971,0.01563,0.01563,-3.5988525045914708,3.6042154491053524,0.29108841710216055,-0.26022881121381286,0.00536294451388164,0.030859605888347685,3.610605463959659,3.6135976585330374,4.26,-1.100458652077896,-29.999999999999996,29.999999999999996
5,3,4,0.0297,-33.33666700003334,3.3336667000033335,0.00337,0.00337,-0.7574691345649562,0.7672609241507012,-1.786400317085842,1.8817869252225092,0.009791789585745003,0.09538660813666722,1.9403570760823845,2.0321937303483084,4.26,0.131224669094053,-29.999999999999996,29.999999999999996
6,3,4,0.03274425,-30.23733968256992,3.023733968256992,0.0033860571712018145,0.0033860571712018145,-0.38893268180194035,0.39781469206431286,1.898159342826698,-1.8126930508037724,0.008882010262372508,0.08546629202292566,1.937595809691467,1.855832057502648,4.26,0.131224669094053,-29.999999999999996,29.999999999999996
1,1,2,0.0281,-35.234840209999646,3.5234840209999647,0.00356,0.00356,2.9241835421880835,-2.9043856318641663,0.4415802128437252,-0.24699400082662254,0.0197979103239172,0.19458621201710263,2.957337057688683,2.9148691111306104,4.0,3.896535867047624,-29.999999999999996,29.999999999999996
